final/Texas2k_series24_cases_with_dynamics/Texas2k_series24_case2_2016lowload/Texas2k_series24_case2_2016lowload.AUX
PWCaseInformation (Selected)
{
"NO "
   <SUBDATA PWCaseHeader>
     //Case Description
     Texas2k_series24_case2_2016lowload
     This is a synthetic power system model that does NOT represent the actual grid. 
     It was developed at Texas A&M University and contains no CEII.
     [1] A.B. Birchfield, T. Xu, K.M. Gegner, K.S. Shetye, and T.J. Overbye,
      "Grid Structural Characteristics as Validation Criteria for Synthetic Networks,"
      IEEE Transactions on Power Systems, vol. 32, no. 4, pp. 3258-3265, July 2017.
     [2] J. Baek and A. B. Birchfield, “A tuning method for exciters and governors 
      in realistic synthetic grids with dynamics,” 2023 North American Power 
      Symposium (NAPS), Asheville, NC, USA, Oct. 2023, pp. 1-6.
   </SUBDATA>
}
Owner (Number,Name,DataMaintainerAssign)
{
       1 "1" ""
}
Substation (Number,Name,IDExtra,Latitude,Longitude,DataMaintainerAssign,
   DataMaintainerInheritBlock)
{
       1 "ODESSA 2" "1" 31.9067360000000 -102.262348000000 "" "NO "
       2 "PRESIDIO 2" "2" 29.8880460000000 -104.519139000000 "" "NO "
       3 "O DONNELL 1" "3" 32.9263890000000 -101.647778000000 "" "NO "
       4 "BIG SPRING 5" "4" 32.2075000000000 -101.388333000000 "" "NO "
       5 "VAN HORN" "5" 31.0934800000000 -104.624514000000 "" "NO "
       6 "IRAAN 2" "6" 30.9314670000000 -102.201433000000 "" "NO "
       7 "PRESIDIO 1" "7" 29.6000000000000 -104.300000000000 "" "NO "
       8 "SANDERSON" "8" 30.0280670000000 -101.970461000000 "" "NO "
       9 "MONAHANS 2" "9" 31.4845860000000 -103.161046000000 "" "NO "
      10 "GRANDFALLS" "10" 31.1695230000000 -103.085134000000 "" "NO "
      11 "MARFA" "11" 30.2852960000000 -104.005761000000 "" "NO "
      12 "GARDEN CITY" "12" 31.7630750000000 -101.501775000000 "" "NO "
      13 "ODESSA 4" "13" 31.7251710000000 -102.413607000000 "" "NO "
      14 "NOTREES" "14" 31.7991710000000 -102.632933000000 "" "NO "
      15 "MIDLAND 4" "15" 31.9794270000000 -102.132366000000 "" "NO "
      16 "BIG SPRING 1" "16" 31.9925000000000 -101.116700000000 "" "NO "
      17 "O DONNELL 2" "17" 32.9290140000000 -101.578617000000 "" "NO "
      18 "ODESSA 6" "18" 31.9693120000000 -102.630882000000 "" "NO "
      19 "BIG SPRINGS" "19" 32.0390000000000 -101.220000000000 "" "NO "
      20 "MIDLAND 2" "20" 32.3216730000000 -102.042298000000 "" "NO "
      21 "COAHOMA" "21" 32.8795110000000 -101.246784000000 "" "NO "
      22 "MIDLAND 3" "22" 31.9923840000000 -102.081464000000 "" "NO "
      23 "ALPINE" "23" 29.8020940000000 -103.222360000000 "" "NO "
      24 "FORT DAVIS" "24" 31.0049690000000 -103.759065000000 "" "NO "
      25 "MCCAMEY 1" "25" 31.2092000000000 -102.241700000000 "" "NO "
      26 "BIG SPRING 4" "26" 31.9914420000000 -101.302637000000 "" "NO "
      27 "CRANE" "27" 31.1868880000000 -102.596253000000 "" "NO "
      28 "ODESSA 5" "28" 31.7991580000000 -102.474090000000 "" "NO "
      29 "FORT STOCKTON 1" "29" 30.7725750000000 -102.505808000000 "" "NO "
      30 "ANDREWS" "30" 32.3357290000000 -102.697303000000 "" "NO "
      31 "FORSAN" "31" 32.1408000000000 -101.398600000000 "" "NO "
      32 "BIG LAKE" "32" 31.2725510000000 -101.172783000000 "" "NO "
      33 "MIDLAND 5" "33" 32.0536040000000 -102.201660000000 "" "NO "
      34 "OZONA" "34" 30.5756180000000 -101.331239000000 "" "NO "
      35 "MONAHANS 1" "35" 31.5839000000000 -102.963300000000 "" "NO "
      36 "STANTON" "36" 32.4898180000000 -101.754488000000 "" "NO "
      37 "ODONNELL" "37" 32.9270100000000 -101.764414000000 "" "NO "
      38 "LENORAH" "38" 32.2353000000000 -101.836700000000 "" "NO "
      39 "IRAAN 3" "39" 30.8847000000000 -101.920800000000 "" "NO "
      40 "BIG SPRING 6" "40" 32.2731820000000 -101.422436000000 "" "NO "
      41 "ODESSA 3" "41" 32.0011290000000 -102.312423000000 "" "NO "
      42 "BIG SPRING 3" "42" 32.1008230000000 -101.451385000000 "" "NO "
      43 "BIG SPRING 7" "43" 32.1029110000000 -101.365434000000 "" "NO "
      44 "MIDLAND 1" "44" 31.5176280000000 -101.918007000000 "" "NO "
      45 "IRAAN 1" "45" 30.9178000000000 -102.086700000000 "" "NO "
      46 "ODESSA 1" "46" 31.8403000000000 -102.326400000000 "" "NO "
      47 "FORT STOCKTON 2" "47" 30.8072720000000 -102.355628000000 "" "NO "
      48 "FORT STOCKTON 3" "48" 30.7474590000000 -102.790792000000 "" "NO "
      49 "BIG SPRING 2" "49" 31.9361000000000 -101.298300000000 "" "NO "
      50 "KERMIT" "50" 31.6962510000000 -103.138992000000 "" "NO "
      51 "PECOS" "51" 31.8035470000000 -103.599914000000 "" "NO "
      52 "SHEFFIELD" "52" 30.5969980000000 -101.784530000000 "" "NO "
      53 "MCCAMEY 2" "53" 31.1392000000000 -102.225300000000 "" "NO "
      54 "LAMESA" "54" 32.9296480000000 -102.133506000000 "" "NO "
      55 "GOLDSMITH" "55" 31.9950000000000 -102.828333000000 "" "NO "
      56 "RALLS 2" "56" 33.6586710000000 -101.531037000000 "" "NO "
      57 "PARIS 3" "57" 33.6838690000000 -95.344733000000 "" "NO "
      58 "SAVOY" "58" 33.6281430000000 -96.367605000000 "" "NO "
      59 "HONEY GROVE" "59" 33.6151670000000 -95.900109000000 "" "NO "
      60 "MEMPHIS" "60" 34.8572580000000 -100.512868000000 "" "NO "
      61 "IOWA PARK" "61" 33.9732970000000 -98.721096000000 "" "NO "
      62 "VERNON 2" "62" 33.8998130000000 -99.773497000000 "" "NO "
      63 "PANHANDLE 2" "63" 35.2383330000000 -101.310833000000 "" "NO "
      64 "CHILDRESS" "64" 34.4472260000000 -100.809848000000 "" "NO "
      65 "FORESTBURG" "65" 33.4716170000000 -97.445189000000 "" "NO "
      66 "SHERMAN 3" "66" 33.6276230000000 -96.767394000000 "" "NO "
      67 "PANHANDLE 4" "67" 35.4275000000000 -101.253056000000 "" "NO "
      68 "WICHITA FALLS 6" "68" 33.9437840000000 -98.523064000000 "" "NO "
      69 "PARIS 2" "69" 33.6968000000000 -95.557700000000 "" "NO "
      70 "WICHITA FALLS 4" "70" 33.8645150000000 -98.491046000000 "" "NO "
      71 "WHEELER" "71" 35.8307630000000 -100.765905000000 "" "NO "
      72 "DEPORT" "72" 33.4826460000000 -95.320088000000 "" "NO "
      73 "WICHITA FALLS 3" "73" 34.0047830000000 -98.388757000000 "" "NO "
      74 "SILVERTON" "74" 34.4574780000000 -101.287161000000 "" "NO "
      75 "BONHAM" "75" 33.7083110000000 -96.240654000000 "" "NO "
      76 "MATADOR" "76" 33.7106840000000 -100.384217000000 "" "NO "
      77 "ARTHUR CITY" "77" 33.8578680000000 -95.649137000000 "" "NO "
      78 "LEONARD" "78" 33.4414400000000 -96.179163000000 "" "NO "
      79 "GORDONVILLE" "79" 33.8309320000000 -96.839764000000 "" "NO "
      80 "KNOX CITY" "80" 33.4318370000000 -99.853667000000 "" "NO "
      81 "WICHITA FALLS 7" "81" 33.8949410000000 -98.543670000000 "" "NO "
      82 "LINDSAY" "82" 33.6158550000000 -97.310834000000 "" "NO "
      83 "ECTOR" "83" 33.5535200000000 -96.282897000000 "" "NO "
      84 "SUNSET" "84" 33.4559910000000 -97.751818000000 "" "NO "
      85 "CLARKSVILLE" "85" 33.6630630000000 -94.997258000000 "" "NO "
      86 "PANHANDLE 3" "86" 35.3860380000000 -101.578572000000 "" "NO "
      87 "SADLER" "87" 33.7379740000000 -96.839543000000 "" "NO "
      88 "WHITESBORO" "88" 33.7438930000000 -96.936121000000 "" "NO "
      89 "SHEPPARD AFB" "89" 33.9695230000000 -98.509016000000 "" "NO "
      90 "POTTSBORO" "90" 33.8007170000000 -96.725989000000 "" "NO "
      91 "BELLS" "91" 33.6236450000000 -96.427874000000 "" "NO "
      92 "CROSBYTON" "92" 33.7744790000000 -100.990114000000 "" "NO "
      93 "ELECTRA" "93" 34.1316880000000 -99.106624000000 "" "NO "
      94 "PATTONVILLE" "94" 33.4022500000000 -95.483203000000 "" "NO "
      95 "HENRIETTA" "95" 33.7584900000000 -98.202251000000 "" "NO "
      96 "PANHANDLE 6" "96" 34.9007600000000 -100.994549000000 "" "NO "
      97 "BOWIE" "97" 33.5205720000000 -97.956120000000 "" "NO "
      98 "WICHITA FALLS 1" "98" 33.9133000000000 -98.493100000000 "" "NO "
      99 "WHITE DEER" "99" 35.4789000000000 -101.243900000000 "" "NO "
     100 "ROXTON" "100" 33.5768230000000 -95.809701000000 "" "NO "
     101 "VERNON 1" "101" 34.2900000000000 -99.364722000000 "" "NO "
     102 "DENISON 2" "102" 33.7707850000000 -96.604061000000 "" "NO "
     103 "SUMNER" "103" 33.7452360000000 -95.744327000000 "" "NO "
     104 "GAINESVILLE" "104" 33.6615830000000 -97.176350000000 "" "NO "
     105 "ASPERMONT" "105" 33.1830640000000 -100.245133000000 "" "NO "
     106 "WICHITA FALLS 5" "106" 33.7990850000000 -98.509840000000 "" "NO "
     107 "WINDTHORST" "107" 33.5126280000000 -98.457627000000 "" "NO "
     108 "HOWE" "108" 33.4507680000000 -96.742245000000 "" "NO "
     109 "ARCHER 2" "109" 33.4930560000000 -98.581944000000 "" "NO "
     110 "COLLINSVILLE" "110" 33.5377060000000 -96.906575000000 "" "NO "
     111 "JAYTON" "111" 32.9697220000000 -100.524167000000 "" "NO "
     112 "MUENSTER 1" "112" 33.7330060000000 -97.428406000000 "" "NO "
     113 "PADUCAH" "113" 33.9943220000000 -100.287247000000 "" "NO "
     114 "NOCONA" "114" 33.7930740000000 -97.963802000000 "" "NO "
     115 "DODD CITY" "115" 33.6155390000000 -96.072156000000 "" "NO "
     116 "WICHITA FALLS 2" "116" 33.8625000000000 -98.589400000000 "" "NO "
     117 "MONTAGUE" "117" 33.6269040000000 -97.687873000000 "" "NO "
     118 "SPUR" "118" 33.3410530000000 -100.714732000000 "" "NO "
     119 "ARCHER 1" "119" 33.4952780000000 -98.500000000000 "" "NO "
     120 "ANNONA" "120" 33.4982210000000 -94.890845000000 "" "NO "
     121 "SEYMOUR" "121" 33.6211450000000 -99.243765000000 "" "NO "
     122 "DENISON 1" "122" 33.7271260000000 -96.470794000000 "" "NO "
     123 "PANHANDLE 5" "123" 35.3503000000000 -101.540000000000 "" "NO "
     124 "RALLS 1" "124" 33.6611110000000 -101.390000000000 "" "NO "
     125 "SHERMAN 1" "125" 33.5825730000000 -96.617893000000 "" "NO "
     126 "WHITEWRIGHT" "126" 33.4945770000000 -96.396115000000 "" "NO "
     127 "SHERMAN 2" "127" 33.6041310000000 -96.550405000000 "" "NO "
     128 "ROCHESTER" "128" 33.3228360000000 -99.642126000000 "" "NO "
     129 "BURKBURNETT" "129" 34.1032730000000 -98.622467000000 "" "NO "
     130 "MUENSTER 2" "130" 33.6820810000000 -97.382855000000 "" "NO "
     131 "ARCHER CITY" "131" 33.5273960000000 -98.884782000000 "" "NO "
     132 "PETROLIA" "132" 34.0083080000000 -98.259320000000 "" "NO "
     133 "PARIS 1" "133" 33.6308000000000 -95.590000000000 "" "NO "
     134 "BAGWELL" "134" 33.8018680000000 -95.151966000000 "" "NO "
     135 "TELEPHONE" "135" 33.7787160000000 -95.996823000000 "" "NO "
     136 "PANHANDLE 1" "136" 35.4427780000000 -101.372778000000 "" "NO "
     137 "VAN ALSTYNE" "137" 33.4356600000000 -96.549913000000 "" "NO "
     138 "TIOGA" "138" 33.4646430000000 -96.892724000000 "" "NO "
     139 "VALLEY VIEW" "139" 33.4580280000000 -97.128552000000 "" "NO "
     140 "MIAMI" "140" 35.6538890000000 -100.538611000000 "" "NO "
     141 "TRENTON" "141" 33.4391250000000 -96.311485000000 "" "NO "
     142 "HASKELL" "142" 33.1226850000000 -99.650389000000 "" "NO "
     143 "SAINT JO" "143" 33.7413670000000 -97.535329000000 "" "NO "
     144 "KERRVILLE" "144" 30.0367010000000 -99.163039000000 "" "NO "
     145 "SWEETWATER 4" "145" 32.3606000000000 -100.338900000000 "" "NO "
     146 "LEAKEY" "146" 29.6444700000000 -99.682471000000 "" "NO "
     147 "HAMLIN" "147" 32.8570040000000 -100.124032000000 "" "NO "
     148 "MERKEL 3" "148" 32.4736210000000 -100.032723000000 "" "NO "
     149 "COLEMAN" "149" 31.7369020000000 -99.567791000000 "" "NO "
     150 "SONORA" "150" 30.4414140000000 -100.560620000000 "" "NO "
     151 "CAMP WOOD" "151" 29.6747000000000 -100.078588000000 "" "NO "
     152 "LLANO" "152" 30.6537460000000 -98.918266000000 "" "NO "
     153 "WILLOW CITY" "153" 30.4370690000000 -98.708714000000 "" "NO "
     154 "ABILENE 4" "154" 32.3356770000000 -99.667488000000 "" "NO "
     155 "KINGSLAND" "155" 30.6728180000000 -98.442748000000 "" "NO "
     156 "ROSCOE 6" "156" 32.4152120000000 -100.573539000000 "" "NO "
     157 "BLACKWELL" "157" 32.1981000000000 -100.268600000000 "" "NO "
     158 "CHRISTOVAL" "158" 31.0854350000000 -100.678820000000 "" "NO "
     159 "LUEDERS" "159" 32.8686190000000 -99.694492000000 "" "NO "
     160 "COLORADO CITY" "160" 32.3145050000000 -100.918356000000 "" "NO "
     161 "STAMFORD" "161" 32.9409110000000 -99.850964000000 "" "NO "
     162 "ELDORADO" "162" 30.8835390000000 -100.595464000000 "" "NO "
     163 "SAN SABA" "163" 31.1570930000000 -98.763991000000 "" "NO "
     164 "ABILENE 2" "164" 32.6256000000000 -99.492800000000 "" "NO "
     165 "LOMETA" "165" 31.2572240000000 -98.376742000000 "" "NO "
     166 "SAN ANGELO 1" "166" 31.5097200000000 -100.322075000000 "" "NO "
     167 "TUSCOLA" "167" 32.2740810000000 -99.826041000000 "" "NO "
     168 "ABILENE 7" "168" 32.3335510000000 -99.927724000000 "" "NO "
     169 "SNYDER 1" "169" 32.7204000000000 -100.995200000000 "" "NO "
     170 "CHEROKEE" "170" 30.9398200000000 -99.079893000000 "" "NO "
     171 "RICHLAND SPRINGS" "171" 31.5179130000000 -99.135467000000 "" "NO "
     172 "ROSCOE 2" "172" 32.4694000000000 -100.666400000000 "" "NO "
     173 "BALLINGER" "173" 31.7385760000000 -99.934162000000 "" "NO "
     174 "SILVER" "174" 32.0500000000000 -100.691700000000 "" "NO "
     175 "ROSCOE 5" "175" 32.3122000000000 -100.530300000000 "" "NO "
     176 "ANSON" "176" 32.7478630000000 -99.905394000000 "" "NO "
     177 "DEL RIO" "177" 29.8372200000000 -101.212436000000 "" "NO "
     178 "HUNT" "178" 30.0951150000000 -99.628211000000 "" "NO "
     179 "WINGATE" "179" 32.2140240000000 -100.057120000000 "" "NO "
     180 "STERLING CITY 1" "180" 31.9261000000000 -100.928100000000 "" "NO "
     181 "ROSCOE 4" "181" 32.2369440000000 -100.483300000000 "" "NO "
     182 "BRADY" "182" 31.1769510000000 -99.616412000000 "" "NO "
     183 "TRENT 1" "183" 32.4301000000000 -100.235652000000 "" "NO "
     184 "OVALO" "184" 32.1202490000000 -99.753027000000 "" "NO "
     185 "NOLAN" "185" 32.2878000000000 -100.100000000000 "" "NO "
     186 "MILES" "186" 31.5920130000000 -100.192616000000 "" "NO "
     187 "BRACKETTVILLE 2" "187" 29.2347220000000 -100.209167000000 "" "NO "
     188 "MASON" "188" 30.8431220000000 -99.570053000000 "" "NO "
     189 "BRACKETTVILLE 3" "189" 29.3956210000000 -100.439985000000 "" "NO "
     190 "ABILENE 6" "190" 32.3627830000000 -99.817314000000 "" "NO "
     191 "HERMLEIGH" "191" 32.5886000000000 -100.672800000000 "" "NO "
     192 "MERKEL 1" "192" 32.3182210000000 -100.176986000000 "" "NO "
     193 "LORAINE 1" "193" 32.4375000000000 -100.744400000000 "" "NO "
     194 "ABILENE 1" "194" 32.5144000000000 -99.656400000000 "" "NO "
     195 "ROCKSPRINGS" "195" 29.9880920000000 -100.286076000000 "" "NO "
     196 "MERKEL 2" "196" 32.3115560000000 -100.061589000000 "" "NO "
     197 "FLUVANNA 2" "197" 32.9479300000000 -101.147784000000 "" "NO "
     198 "DYESS AFB" "198" 32.4158230000000 -99.906230000000 "" "NO "
     199 "HAWLEY" "199" 32.6304730000000 -99.830642000000 "" "NO "
     200 "BUCHANAN DAM 2" "200" 30.9367680000000 -98.467066000000 "" "NO "
...
}
Limit_Monitoring_Options_Value (Option,Value)
{
"LMS_IgnoreRadial"                 "NO"
}
LimitSet (Name,Disabled,DataMaintainerAssign,AmpMVA,MonitorEnd,BranchPercent,
   InterfacePercent,BranchRateSet,InterfaceRateSet,BranchRateSetCTG,
   InterfaceRateSetCTG,HighVolt,LowVolt,HighVoltCTG,LowVoltCTG,HighVoltRateSet,
   LowVoltRateSet,HighVoltRateSetCTG,LowVoltRateSetCTG)
{
"Default" "NO " "" "MVA" "Higher" 100.0000 100.0000 "A" "A" "A" "A" 1.100000 0.900000 1.100000 0.900000 "A" "A" "A" "A"
}
RatingSetNameBus (Name,Header,Description)
{
"A" "" ""
"B" "" ""
"C" "" ""
"D" "" ""
}
RatingSetNameBranch (Name,Header,Description)
{
"A" "" ""
"B" "" ""
"C" "" ""
"D" "" ""
"E" "" ""
"F" "" ""
"G" "" ""
"H" "" ""
"I" "" ""
"J" "" ""
"K" "" ""
"L" "" ""
"M" "" ""
"N" "" ""
"O" "" ""
}
RatingSetNameInterface (Name,Header,Description)
{
"A" "" ""
"B" "" ""
"C" "" ""
"D" "" ""
"E" "" ""
"F" "" ""
"G" "" ""
"H" "" ""
"I" "" ""
"J" "" ""
"K" "" ""
"L" "" ""
"M" "" ""
"N" "" ""
"O" "" ""
}
RatingSetNameBusPair (Name,Header,Description)
{
"A" "" ""
"B" "" ""
"C" "" ""
"D" "" ""
}
Bus (Number,Name,NomkV,Slack,NomB,NomG,Vpu,Vangle,DCLossMultiplier,AreaNumber,
   ZoneNumber,BANumber,OwnerNumber,SubNumber,Monitor,LimitSet,UseSpecificLimits,
   LimitLowA,LimitLowB,LimitLowC,LimitLowD,LimitHighA,LimitHighB,LimitHighC,
   LimitHighD,Latitude,Longitude,TopologyBusType,Priority,EMSType,EMSID,
   DataMaintainerAssign,DataMaintainerInherit,DataMaintainerInheritBlock,
   AllLabels,CustomFloat:0)
{
  1001 "ODESSA 2 0"   115.0000 "NO "    0.00000    0.00000 0.99571515 -16.8769657 1.000000      1      9      1      1 1 "YES" "Default" "NO " "" "" "" "" "" "" "" "" "" "" "BusbarSection" 0 "" "" "" "YES" "NO " ""     0.074080
  1002 "PRESIDIO 2 0" 115.0000 "NO "    0.00000    0.00000 1.02479954  -4.0524204 1.000000      1      9      1      1 2 "YES" "Default" "NO " "" "" "" "" "" "" "" "" "" "" "BusbarSection" 0 "" "" "" "YES" "NO " ""     1.249530
  1003 "O DONNELL 1 0" 115.0000 "NO "    0.00000    0.00000 1.01189939  -9.6615354 1.000000      1      9      1      1 3 "YES" "Default" "NO " "" "" "" "" "" "" "" "" "" "" "BusbarSection" 0 "" "" "" "YES" "NO " ""     0.237750
  1004 "O DONNELL 1 1" 230.0000 "NO "    0.00000    0.00000 1.01760605 -12.0115938 1.000000      1      9      1      1 3 "YES" "Default" "NO " "" "" "" "" "" "" "" "" "" "" "BusbarSection" 0 "" "" "" "YES" "NO " ""     0.121930
  1005 "BIG SPRING 5 0" 115.0000 "NO "    0.00000    0.00000 1.01032255  -3.8112774 1.000000      1      9      1      1 4 "YES" "Default" "NO " "" "" "" "" "" "" "" "" "" "" "BusbarSection" 0 "" "" "" "YES" "NO " ""     0.387250
  1006 "BIG SPRING 5 1" 13.8000 "NO "    0.00000    0.00000 1.00391403  -1.6563528 1.000000      1      9      1      1 4 "YES" "Default" "NO " "" "" "" "" "" "" "" "" "" "" "BusbarSection" 0 "" "" "" "YES" "NO " ""     0.534320
  1007 "VAN HORN 0"   115.0000 "NO "    0.00000    0.00000 1.03000002  -5.4797128 1.000000      1      9      1      1 5 "YES" "Default" "NO " "" "" "" "" "" "" "" "" "" "" "BusbarSection" 0 "" "" "" "YES" "NO " ""     0.836870
  1008 "IRAAN 2 0"    115.0000 "NO "    0.00000    0.00000 1.02400892   2.9201112 1.000000      1      9      1      1 6 "YES" "Default" "NO " "" "" "" "" "" "" "" "" "" "" "BusbarSection" 0 "" "" "" "YES" "NO " ""     0.321100
  1009 "IRAAN 2 1"    13.8000 "NO "    0.00000    0.00000 1.01402710   6.1849990 1.000000      1      9      1      1 6 "YES" "Default" "NO " "" "" "" "" "" "" "" "" "" "" "BusbarSection" 0 "" "" "" "YES" "NO " ""     0.415810
  1010 "PRESIDIO 1 0" 115.0000 "NO "    0.00000    0.00000 1.03000002  -2.9814356 1.000000      1      9      1      1 7 "YES" "Default" "NO " "" "" "" "" "" "" "" "" "" "" "BusbarSection" 0 "" "" "" "YES" "NO " ""     1.113830
  1011 "PRESIDIO 1 1" 22.0000 "NO "    0.00000    0.00000 1.03021784  -1.2284730 1.000000      1      9      1      1 7 "YES" "Default" "NO " "" "" "" "" "" "" "" "" "" "" "BusbarSection" 0 "" "" "" "YES" "NO " ""     1.438430
  1012 "SANDERSON 0"  115.0000 "NO "    0.00000    0.00000 1.02225301 -12.4699792 1.000000      1      9      1      1 8 "YES" "Default" "NO " "" "" "" "" "" "" "" "" "" "" "BusbarSection" 0 "" "" "" "YES" "NO " ""     0.619650
  1013 "MONAHANS 2 0" 115.0000 "NO "    0.00000    0.00000 1.01530043  -6.5528662 1.000000      1      9      1      1 9 "YES" "Default" "NO " "" "" "" "" "" "" "" "" "" "" "BusbarSection" 0 "" "" "" "YES" "NO " ""     0.291750
  1014 "GRANDFALLS 0" 115.0000 "NO "    0.00000    0.00000 1.01833480  -2.3951260 1.000000      1      9      1      1 10 "YES" "Default" "NO " "" "" "" "" "" "" "" "" "" "" "BusbarSection" 0 "" "" "" "YES" "NO " ""     0.378520
  1015 "MARFA 0"      115.0000 "NO "    0.00000    0.00000 1.03274744  -4.4524767 1.000000      1      9      1      1 11 "YES" "Default" "NO " "" "" "" "" "" "" "" "" "" "" "BusbarSection" 0 "" "" "" "YES" "NO " ""     1.210620
  1016 "GARDEN CITY 0" 115.0000 "NO "    0.00000    0.00000 1.02429818  -1.1043379 1.000000      1      9      1      1 12 "YES" "Default" "NO " "" "" "" "" "" "" "" "" "" "" "BusbarSection" 0 "" "" "" "YES" "NO " ""     0.586530
  1017 "ODESSA 4 0"   115.0000 "NO "    0.00000    0.00000 0.99440493 -12.8259547 1.000000      1      9      1      1 13 "YES" "Default" "NO " "" "" "" "" "" "" "" "" "" "" "BusbarSection" 0 "" "" "" "YES" "NO " ""     0.122710
  1018 "NOTREES 0"    115.0000 "NO "    0.00000    0.00000 1.00179703 -10.8139169 1.000000      1      9      1      1 14 "YES" "Default" "NO " "" "" "" "" "" "" "" "" "" "" "BusbarSection" 0 "" "" "" "YES" "NO " ""     0.201580
  1019 "MIDLAND 4 0"  115.0000 "NO "    0.00000    0.00000 1.01235053 -16.0609878 1.000000      1      9      1      1 15 "YES" "Default" "NO " "" "" "" "" "" "" "" "" "" "" "BusbarSection" 0 "" "" "" "YES" "NO " ""     0.074000
  1020 "BIG SPRING 1 0" 115.0000 "NO "    0.00000    0.00000 1.02631343  -4.6922212 1.000000      1      9      1      1 16 "YES" "Default" "NO " "" "" "" "" "" "" "" "" "" "" "BusbarSection" 0 "" "" "" "YES" "NO " ""     0.270810
  1021 "BIG SPRING 1 1" 13.8000 "NO "    0.00000    0.00000 1.00203940   1.8869338 1.000000      1      9      1      1 16 "YES" "Default" "NO " "" "" "" "" "" "" "" "" "" "" "BusbarSection" 0 "" "" "" "YES" "NO " ""     0.348930
  1022 "O DONNELL 2 0" 115.0000 "NO "    0.00000    0.00000 1.01391888  -9.0455954 1.000000      1      9      1      1 17 "YES" "Default" "NO " "" "" "" "" "" "" "" "" "" "" "BusbarSection" 0 "" "" "" "YES" "NO " ""     0.257870
  1023 "O DONNELL 2 1" 13.8000 "NO "    0.00000    0.00000 1.01000002  -0.1506175 1.000000      1      9      1      1 17 "YES" "Default" "NO " "" "" "" "" "" "" "" "" "" "" "BusbarSection" 0 "" "" "" "YES" "NO " ""     0.375200
  1024 "ODESSA 6 0"   115.0000 "NO "    0.00000    0.00000 1.00163066  -9.2044606 1.000000      1      9      1      1 18 "YES" "Default" "NO " "" "" "" "" "" "" "" "" "" "" "BusbarSection" 0 "" "" "" "YES" "NO " ""     0.267300
  1025 "BIG SPRINGS 0" 115.0000 "NO "    0.00000    0.00000 1.02152825  -3.1316627 1.000000      1      9      1      1 19 "YES" "Default" "NO " "" "" "" "" "" "" "" "" "" "" "BusbarSection" 0 "" "" "" "YES" "NO " ""     0.305150
  1026 "BIG SPRINGS 1" 13.8000 "NO "    0.00000    0.00000 1.00000004   6.3549547 1.000000      1      9      1      1 19 "YES" "Default" "NO " "" "" "" "" "" "" "" "" "" "" "BusbarSection" 0 "" "" "" "YES" "NO " ""     0.485610
  1027 "MIDLAND 2 0"  115.0000 "NO "    0.00000    0.00000 1.02338675 -14.4348835 1.000000      1      9      1      1 20 "YES" "Default" "NO " "" "" "" "" "" "" "" "" "" "" "BusbarSection" 0 "" "" "" "YES" "NO " ""     0.220770
  1028 "COAHOMA 0"    115.0000 "NO "    0.00000    0.00000 1.01600266 -11.1622538 1.000000      1      9      1      1 21 "YES" "Default" "NO " "" "" "" "" "" "" "" "" "" "" "BusbarSection" 0 "" "" "" "YES" "NO " ""     0.222040
  1029 "MIDLAND 3 0"  115.0000 "NO "    0.00000    0.00000 1.02078448 -12.9524635 1.000000      1      9      1      1 22 "YES" "Default" "NO " "" "" "" "" "" "" "" "" "" "" "BusbarSection" 0 "" "" "" "YES" "NO " ""     0.264590
  1030 "ALPINE 0"     115.0000 "NO "    0.00000    0.00000 1.02415351  -0.1977598 1.000000      1      9      1      1 23 "YES" "Default" "NO " "" "" "" "" "" "" "" "" "" "" "BusbarSection" 0 "" "" "" "YES" "NO " ""     0.743930
  1031 "FORT DAVIS 0" 115.0000 "NO "    0.00000    0.00000 1.02327949  -6.4127400 1.000000      1      9      1      1 24 "YES" "Default" "NO " "" "" "" "" "" "" "" "" "" "" "BusbarSection" 0 "" "" "" "YES" "NO " ""     0.562530
  1032 "MCCAMEY 1 0"  115.0000 "NO "    0.00000    0.00000 1.00240864  -1.4243086 1.000000      1      9      1      1 25 "YES" "Default" "NO " "" "" "" "" "" "" "" "" "" "" "BusbarSection" 0 "" "" "" "YES" "NO " ""     0.211080
  1033 "MCCAMEY 1 1"  230.0000 "NO "    0.00000    0.00000 1.02632823  -7.6983005 1.000000      1      9      1      1 25 "YES" "Default" "NO " "" "" "" "" "" "" "" "" "" "" "BusbarSection" 0 "" "" "" "YES" "NO " ""     0.143500
  1034 "BIG SPRING 4 0" 115.0000 "NO "    0.00000    0.00000 1.00958345  -0.6474715 1.000000      1      9      1      1 26 "YES" "Default" "NO " "" "" "" "" "" "" "" "" "" "" "BusbarSection" 0 "" "" "" "YES" "NO " ""     0.476770
  1035 "BIG SPRING 4 1" 13.8000 "NO "    0.00000    0.00000 1.00000004   2.6407671 1.000000      1      9      1      1 26 "YES" "Default" "NO " "" "" "" "" "" "" "" "" "" "" "BusbarSection" 0 "" "" "" "YES" "NO " ""     0.561730
  1036 "CRANE 0"      115.0000 "NO "    0.00000    0.00000 0.99865920  -0.0719673 1.000000      1      9      1      1 27 "YES" "Default" "NO " "" "" "" "" "" "" "" "" "" "" "BusbarSection" 0 "" "" "" "YES" "NO " ""     0.328540
  1037 "ODESSA 5 0"   115.0000 "NO "    0.00000    0.00000 0.98808463 -15.0067610 1.000000      1      9      1      1 28 "YES" "Default" "NO " "" "" "" "" "" "" "" "" "" "" "BusbarSection" 0 "" "" "" "YES" "NO " ""     0.089190
  1038 "FORT STOCKTON 1 0" 115.0000 "NO "    0.00000    0.00000 1.02199748   3.9435147 1.000000      1      9      1      1 29 "YES" "Default" "NO " "" "" "" "" "" "" "" "" "" "" "BusbarSection" 0 "" "" "" "YES" "NO " ""     0.321080
  1039 "FORT STOCKTON 1 1" 22.0000 "NO "    0.00000    0.00000 1.00154348   9.2952893 1.000000      1      9      1      1 29 "YES" "Default" "NO " "" "" "" "" "" "" "" "" "" "" "BusbarSection" 0 "" "" "" "YES" "NO " ""     0.406990
  1040 "ANDREWS 0"    115.0000 "NO "    0.00000    0.00000 1.00166705 -11.2864279 1.000000      1      9      1      1 30 "YES" "Default" "NO " "" "" "" "" "" "" "" "" "" "" "BusbarSection" 0 "" "" "" "YES" "NO " ""     0.280510
  1041 "FORSAN 0"     115.0000 "NO "    0.00000    0.00000 1.00760630  -1.8970484 1.000000      1      9      1      1 31 "YES" "Default" "NO " "" "" "" "" "" "" "" "" "" "" "BusbarSection" 0 "" "" "" "YES" "NO " ""     0.446280
  1042 "FORSAN 1"     13.8000 "NO "    0.00000    0.00000 1.00760630  -1.8970484 1.000000      1      9      1      1 31 "YES" "Default" "NO " "" "" "" "" "" "" "" "" "" "" "BusbarSection" 0 "" "" "" "YES" "NO " ""     0.557510
  1043 "FORSAN 2"     13.8000 "NO "    0.00000    0.00000 1.00000004   1.3352475 1.000000      1      9      1      1 31 "YES" "Default" "NO " "" "" "" "" "" "" "" "" "" "" "BusbarSection" 0 "" "" "" "YES" "NO " ""     0.574720
  1044 "BIG LAKE 0"   115.0000 "NO "    0.00000    0.00000 1.01632068 -15.9113277 1.000000      1      9      1      1 32 "YES" "Default" "NO " "" "" "" "" "" "" "" "" "" "" "BusbarSection" 0 "" "" "" "YES" "NO " ""     0.375600
  1045 "MIDLAND 5 0"  115.0000 "NO "    0.00000    0.00000 0.99679048 -16.7134375 1.000000      1      9      1      1 33 "YES" "Default" "NO " "" "" "" "" "" "" "" "" "" "" "BusbarSection" 0 "" "" "" "YES" "NO " ""     0.111200
  1046 "OZONA 0"      115.0000 "NO "    0.00000    0.00000 1.02949304 -10.0949200 1.000000      1      9      1      1 34 "YES" "Default" "NO " "" "" "" "" "" "" "" "" "" "" "BusbarSection" 0 "" "" "" "YES" "NO " ""     0.661180
  1047 "MONAHANS 1 0" 115.0000 "NO "    0.00000    0.00000 1.01220012  -5.7131982 1.000000      1      9      1      1 35 "YES" "Default" "NO " "" "" "" "" "" "" "" "" "" "" "BusbarSection" 0 "" "" "" "YES" "NO " ""     0.230580
  1048 "MONAHANS 1 1" 18.0000 "NO "    0.00000    0.00000 1.01220012  -5.7131982 1.000000      1      9      1      1 35 "YES" "Default" "NO " "" "" "" "" "" "" "" "" "" "" "BusbarSection" 0 "" "" "" "YES" "NO " ""     0.296340
  1049 "MONAHANS 1 2" 18.0000 "NO "    0.00000    0.00000 1.01220012  -5.7131982 1.000000      1      9      1      1 35 "YES" "Default" "NO " "" "" "" "" "" "" "" "" "" "" "BusbarSection" 0 "" "" "" "YES" "NO " ""     0.348410
  1050 "MONAHANS 1 3" 18.0000 "NO "    0.00000    0.00000 1.00156226  -1.0246974 1.000000      1      9      1      1 35 "YES" "Default" "NO " "" "" "" "" "" "" "" "" "" "" "BusbarSection" 0 "" "" "" "YES" "NO " ""     0.329990
  1051 "MONAHANS 1 4" 18.0000 "NO "    0.00000    0.00000 1.00000005   0.3568172 1.000000      1      9      1      1 35 "YES" "Default" "NO " "" "" "" "" "" "" "" "" "" "" "BusbarSection" 0 "" "" "" "YES" "NO " ""     0.358880
  1052 "MONAHANS 1 5" 18.0000 "NO "    0.00000    0.00000 1.01220012  -5.7131982 1.000000      1      9      1      1 35 "YES" "Default" "NO " "" "" "" "" "" "" "" "" "" "" "BusbarSection" 0 "" "" "" "YES" "NO " ""     0.313180
  1053 "MONAHANS 1 6" 230.0000 "NO "    0.00000    0.00000 1.02665932  -9.4716809 1.000000      1      9      1      1 35 "YES" "Default" "NO " "" "" "" "" "" "" "" "" "" "" "BusbarSection" 0 "" "" "" "YES" "NO " ""     0.142500
  1054 "STANTON 0"    115.0000 "NO "    0.00000    0.00000 1.01800361 -10.5285736 1.000000      1      9      1      1 36 "YES" "Default" "NO " "" "" "" "" "" "" "" "" "" "" "BusbarSection" 0 "" "" "" "YES" "NO " ""     0.393400
  1055 "ODONNELL 0"   115.0000 "NO "    0.00000    0.00000 1.00805740 -10.0142638 1.000000      1      9      1      1 37 "YES" "Default" "NO " "" "" "" "" "" "" "" "" "" "" "BusbarSection" 0 "" "" "" "YES" "NO " ""     0.275570
  1056 "LENORAH 0"    115.0000 "NO "    0.00000    0.00000 1.03000001  -9.8381055 1.000000      1      9      1      1 38 "YES" "Default" "NO " "" "" "" "" "" "" "" "" "" "" "BusbarSection" 0 "" "" "" "YES" "NO " ""     0.297070
  1057 "LENORAH 1"    18.0000 "NO "    0.00000    0.00000 1.03000001  -9.8381055 1.000000      1      9      1      1 38 "YES" "Default" "NO " "" "" "" "" "" "" "" "" "" "" "BusbarSection" 0 "" "" "" "YES" "NO " ""     0.428270
  1058 "IRAAN 3 0"    115.0000 "NO "    0.00000    0.00000 1.02652509   0.7191957 1.000000      1      9      1      1 39 "YES" "Default" "NO " "" "" "" "" "" "" "" "" "" "" "BusbarSection" 0 "" "" "" "YES" "NO " ""     0.408930
  1059 "IRAAN 3 1"    22.0000 "NO "    0.00000    0.00000 1.02652509   0.7191957 1.000000      1      9      1      1 39 "YES" "Default" "NO " "" "" "" "" "" "" "" "" "" "" "BusbarSection" 0 "" "" "" "YES" "NO " ""     0.870800
  1060 "IRAAN 3 2"    22.0000 "NO "    0.00000    0.00000 1.02652509   0.7191957 1.000000      1      9      1      1 39 "YES" "Default" "NO " "" "" "" "" "" "" "" "" "" "" "BusbarSection" 0 "" "" "" "YES" "NO " ""     0.797470
  1061 "BIG SPRING 6 0" 115.0000 "NO "    0.00000    0.00000 1.01180536  -5.1913819 1.000000      1      9      1      1 40 "YES" "Default" "NO " "" "" "" "" "" "" "" "" "" "" "BusbarSection" 0 "" "" "" "YES" "NO " ""     0.412090
  1062 "BIG SPRING 6 1" 13.8000 "NO "    0.00000    0.00000 1.01180536  -5.1913819 1.000000      1      9      1      1 40 "YES" "Default" "NO " "" "" "" "" "" "" "" "" "" "" "BusbarSection" 0 "" "" "" "YES" "NO " ""     0.729960
  1063 "BIG SPRING 6 2" 13.8000 "NO "    0.00000    0.00000 1.01180536  -5.1913819 1.000000      1      9      1      1 40 "YES" "Default" "NO " "" "" "" "" "" "" "" "" "" "" "BusbarSection" 0 "" "" "" "YES" "NO " ""     0.516180
  1064 "ODESSA 3 0"   115.0000 "NO "    0.00000    0.00000 0.99062044 -17.2701310 1.000000      1      9      1      1 41 "YES" "Default" "NO " "" "" "" "" "" "" "" "" "" "" "BusbarSection" 0 "" "" "" "YES" "NO " ""     0.109880
  1065 "BIG SPRING 3 0" 115.0000 "NO "    0.00000    0.00000 1.00953151  -1.9115449 1.000000      1      9      1      1 42 "YES" "Default" "NO " "" "" "" "" "" "" "" "" "" "" "BusbarSection" 0 "" "" "" "YES" "NO " ""     0.426690
  1066 "BIG SPRING 3 1" 13.8000 "NO "    0.00000    0.00000 1.00000004   5.5949057 1.000000      1      9      1      1 42 "YES" "Default" "NO " "" "" "" "" "" "" "" "" "" "" "BusbarSection" 0 "" "" "" "YES" "NO " ""     0.549840
  1067 "BIG SPRING 7 0" 115.0000 "NO "    0.00000    0.00000 1.00576624  -2.3275830 1.000000      1      9      1      1 43 "YES" "Default" "NO " "" "" "" "" "" "" "" "" "" "" "BusbarSection" 0 "" "" "" "YES" "NO " ""     0.429060
  1068 "MIDLAND 1 0"  115.0000 "NO "    0.00000    0.00000 0.99540119  -1.1332775 1.000000      1      9      1      1 44 "YES" "Default" "NO " "" "" "" "" "" "" "" "" "" "" "BusbarSection" 0 "" "" "" "YES" "NO " ""     0.615680
  1069 "IRAAN 1 0"    115.0000 "NO "    0.00000    0.00000 1.02783793   3.0133198 1.000000      1      9      1      1 45 "YES" "Default" "NO " "" "" "" "" "" "" "" "" "" "" "BusbarSection" 0 "" "" "" "YES" "NO " ""     0.357380
  1070 "IRAAN 1 1"    13.8000 "NO "    0.00000    0.00000 1.04000000   7.5064748 1.000000      1      9      1      1 45 "YES" "Default" "NO " "" "" "" "" "" "" "" "" "" "" "BusbarSection" 0 "" "" "" "YES" "NO " ""     0.427380
  1071 "ODESSA 1 0"   115.0000 "NO "    0.00000    0.00000 1.00072205 -16.4869169 1.000000      1      9      1      1 46 "YES" "Default" "NO " "" "" "" "" "" "" "" "" "" "" "BusbarSection" 0 "" "" "" "YES" "NO " ""     0.046000
  1072 "ODESSA 1 1"   18.0000 "NO "    0.00000    0.00000 1.01000004  -7.8430493 1.000000      1      9      1      1 46 "YES" "Default" "NO " "" "" "" "" "" "" "" "" "" "" "BusbarSection" 0 "" "" "" "YES" "NO " ""     0.131510
  1073 "ODESSA 1 2"   18.0000 "NO "    0.00000    0.00000 1.01000005  -1.9762918 1.000000      1      9      1      1 46 "YES" "Default" "NO " "" "" "" "" "" "" "" "" "" "" "BusbarSection" 0 "" "" "" "YES" "NO " ""     0.188540
  1074 "ODESSA 1 3"   18.0000 "NO "    0.00000    0.00000 1.00072205 -16.4869169 1.000000      1      9      1      1 46 "YES" "Default" "NO " "" "" "" "" "" "" "" "" "" "" "BusbarSection" 0 "" "" "" "YES" "NO " ""     0.170530
  1075 "ODESSA 1 4"   18.0000 "NO "    0.00000    0.00000 1.00072205 -16.4869169 1.000000      1      9      1      1 46 "YES" "Default" "NO " "" "" "" "" "" "" "" "" "" "" "BusbarSection" 0 "" "" "" "YES" "NO " ""     0.145670
  1076 "ODESSA 1 5"   18.0000 "NO "    0.00000    0.00000 1.00072205 -16.4869169 1.000000      1      9      1      1 46 "YES" "Default" "NO " "" "" "" "" "" "" "" "" "" "" "BusbarSection" 0 "" "" "" "YES" "NO " ""     0.095370
  1077 "ODESSA 1 6"   18.0000 "NO "    0.00000    0.00000 1.00072205 -16.4869169 1.000000      1      9      1      1 46 "YES" "Default" "NO " "" "" "" "" "" "" "" "" "" "" "BusbarSection" 0 "" "" "" "YES" "NO " ""     0.166470
  1078 "ODESSA 1 7"   18.0000 "NO "    0.00000    0.00000 1.01000004  -6.8732245 1.000000      1      9      1      1 46 "YES" "Default" "NO " "" "" "" "" "" "" "" "" "" "" "BusbarSection" 0 "" "" "" "YES" "NO " ""     0.236870
  1079 "ODESSA 1 8"   500.0000 "NO "    0.00000    0.00000 1.05050808 -32.0546983 1.000000      1      9      1      1 46 "YES" "Default" "NO " "" "" "" "" "" "" "" "" "" "" "BusbarSection" 0 "" "" "" "YES" "NO " ""     0.000000
  1080 "ODESSA 1 9"   18.0000 "NO "    0.00000    0.00000 1.00072205 -16.4869169 1.000000      1      9      1      1 46 "YES" "Default" "NO " "" "" "" "" "" "" "" "" "" "" "BusbarSection" 0 "" "" "" "YES" "NO " ""     0.248080
  1081 "ODESSA 1 10"  230.0000 "NO "    0.00000    0.00000 1.03000001 -10.7494566 1.000000      1      9      1      1 46 "YES" "Default" "NO " "" "" "" "" "" "" "" "" "" "" "BusbarSection" 0 "" "" "" "YES" "NO " ""     0.112500
  1082 "FORT STOCKTON 2 0" 115.0000 "NO "    0.00000    0.00000 1.02480795   5.7111865 1.000000      1      9      1      1 47 "YES" "Default" "NO " "" "" "" "" "" "" "" "" "" "" "BusbarSection" 0 "" "" "" "YES" "NO " ""     0.370770
  1083 "FORT STOCKTON 3 0" 115.0000 "NO "    0.00000    0.00000 1.02639785   1.8145256 1.000000      1      9      1      1 48 "YES" "Default" "NO " "" "" "" "" "" "" "" "" "" "" "BusbarSection" 0 "" "" "" "YES" "NO " ""     0.371080
  1084 "BIG SPRING 2 0" 115.0000 "NO "    0.00000    0.00000 1.02950977  -6.6078403 1.000000      1      9      1      1 49 "YES" "Default" "NO " "" "" "" "" "" "" "" "" "" "" "BusbarSection" 0 "" "" "" "YES" "NO " ""     0.234000
  1085 "KERMIT 0"     115.0000 "NO "    0.00000    0.00000 1.01645821  -6.6073340 1.000000      1      9      1      1 50 "YES" "Default" "NO " "" "" "" "" "" "" "" "" "" "" "BusbarSection" 0 "" "" "" "YES" "NO " ""     0.291750
  1086 "PECOS 0"      115.0000 "NO "    0.00000    0.00000 1.02918351  -7.9208182 1.000000      1      9      1      1 51 "YES" "Default" "NO " "" "" "" "" "" "" "" "" "" "" "BusbarSection" 0 "" "" "" "YES" "NO " ""     0.440130
  1087 "SHEFFIELD 0"  115.0000 "NO "    0.00000    0.00000 1.03000001  -3.9348792 1.000000      1      9      1      1 52 "YES" "Default" "NO " "" "" "" "" "" "" "" "" "" "" "BusbarSection" 0 "" "" "" "YES" "NO " ""     0.518490
  1088 "MCCAMEY 2 0"  115.0000 "NO "    0.00000    0.00000 1.00000004   1.7729985 1.000000      1      9      1      1 53 "YES" "Default" "NO " "" "" "" "" "" "" "" "" "" "" "BusbarSection" 0 "" "" "" "YES" "NO " ""     0.446470
  1089 "LAMESA 0"     115.0000 "NO "    0.00000    0.00000 0.99720177 -11.0180194 1.000000      1      9      1      1 54 "YES" "Default" "NO " "" "" "" "" "" "" "" "" "" "" "BusbarSection" 0 "" "" "" "YES" "NO " ""     0.397360
  1090 "GOLDSMITH 0"  115.0000 "NO "    0.00000    0.00000 1.02000003  -6.5830503 1.000000      1      9      1      1 55 "YES" "Default" "NO " "" "" "" "" "" "" "" "" "" "" "BusbarSection" 0 "" "" "" "YES" "NO " ""     0.330330
  1091 "RALLS 2 0"    161.0000 "NO "    0.00000    0.00000 1.03190729 -24.9871576 1.000000      1      9      1      1 56 "YES" "Default" "NO " "" "" "" "" "" "" "" "" "" "" "BusbarSection" 0 "" "" "" "YES" "NO " ""     0.224750
  2001 "PARIS 3 0"    161.0000 "NO "    0.00000    0.00000 1.02841016 -49.3941519 1.000000      2     11      1      1 57 "YES" "Default" "NO " "" "" "" "" "" "" "" "" "" "" "BusbarSection" 0 "" "" "" "YES" "NO " ""     0.130770
  2002 "SAVOY 0"      500.0000 "NO "    0.00000    0.00000 1.03369873 -48.8966512 1.000000      2     11      1      1 58 "YES" "Default" "NO " "" "" "" "" "" "" "" "" "" "" "BusbarSection" 0 "" "" "" "YES" "NO " ""     0.068760
  2003 "SAVOY 1"      161.0000 "NO "    0.00000    0.00000 1.03206614 -50.0203972 1.000000      2     11      1      1 58 "YES" "Default" "NO " "" "" "" "" "" "" "" "" "" "" "BusbarSection" 0 "" "" "" "YES" "NO " ""     0.088620
  2004 "SAVOY 2"      13.8000 "NO "    0.00000    0.00000 1.03369873 -48.8966512 1.000000      2     11      1      1 58 "YES" "Default" "NO " "" "" "" "" "" "" "" "" "" "" "BusbarSection" 0 "" "" "" "YES" "NO " ""     0.083420
  2005 "SAVOY 3"      13.8000 "NO "    0.00000    0.00000 1.03369873 -48.8966512 1.000000      2     11      1      1 58 "YES" "Default" "NO " "" "" "" "" "" "" "" "" "" "" "BusbarSection" 0 "" "" "" "YES" "NO " ""     0.085900
  2006 "SAVOY 4"      13.8000 "NO "    0.00000    0.00000 1.03369873 -48.8966512 1.000000      2     11      1      1 58 "YES" "Default" "NO " "" "" "" "" "" "" "" "" "" "" "BusbarSection" 0 "" "" "" "YES" "NO " ""     0.095550
  2007 "HONEY GROVE 0" 161.0000 "NO "    0.00000    0.00000 1.02893148 -49.2183011 1.000000      2     11      1      1 59 "YES" "Default" "NO " "" "" "" "" "" "" "" "" "" "" "BusbarSection" 0 "" "" "" "YES" "NO " ""     0.135400
  2008 "MEMPHIS 0"    161.0000 "NO "    0.00000    0.00000 1.03651227 -25.9540804 1.000000      2     10      1      1 60 "YES" "Default" "NO " "" "" "" "" "" "" "" "" "" "" "BusbarSection" 0 "" "" "" "YES" "NO " ""     0.317310
  2009 "IOWA PARK 0"  161.0000 "NO "    0.00000    0.00000 1.03000000 -36.7228422 1.000000      2     11      1      1 61 "YES" "Default" "NO " "" "" "" "" "" "" "" "" "" "" "BusbarSection" 0 "" "" "" "YES" "NO " ""     0.112470
  2010 "VERNON 2 0"   161.0000 "NO "    0.00000    0.00000 1.03000000 -26.1079381 1.000000      2     10      1      1 62 "YES" "Default" "NO " "" "" "" "" "" "" "" "" "" "" "BusbarSection" 0 "" "" "" "YES" "NO " ""     0.345200
  2011 "PANHANDLE 2 0" 500.0000 "NO "    0.00000    0.00000 1.05631680 -26.6348286 1.000000      2     10      1      1 63 "YES" "Default" "NO " "" "" "" "" "" "" "" "" "" "" "BusbarSection" 0 "" "" "" "YES" "NO " ""     0.110630
  2012 "PANHANDLE 2 1" 161.0000 "NO "    0.00000    0.00000 1.04490753 -24.3587810 1.000000      2     10      1      1 63 "YES" "Default" "NO " "" "" "" "" "" "" "" "" "" "" "BusbarSection" 0 "" "" "" "YES" "NO " ""     0.146090
  2013 "PANHANDLE 2 2" 18.0000 "NO "    0.00000    0.00000 1.04812537 -24.3722438 1.000000      2     10      1      1 63 "YES" "Default" "NO " "" "" "" "" "" "" "" "" "" "" "BusbarSection" 0 "" "" "" "YES" "NO " ""     0.139600
  2014 "CHILDRESS 0"  161.0000 "NO "    0.00000    0.00000 1.03352017 -26.2678502 1.000000      2     10      1      1 64 "YES" "Default" "NO " "" "" "" "" "" "" "" "" "" "" "BusbarSection" 0 "" "" "" "YES" "NO " ""     0.416620
  2015 "FORESTBURG 0" 161.0000 "NO "    0.00000    0.00000 1.02244025 -47.0246057 1.000000      2     11      1      1 65 "YES" "Default" "NO " "" "" "" "" "" "" "" "" "" "" "BusbarSection" 0 "" "" "" "YES" "NO " ""     0.246050
  2016 "SHERMAN 3 0"  161.0000 "NO "    0.00000    0.00000 1.02254393 -52.6369830 1.000000      2     11      1      1 66 "YES" "Default" "NO " "" "" "" "" "" "" "" "" "" "" "BusbarSection" 0 "" "" "" "YES" "NO " ""     0.193190
  2017 "PANHANDLE 4 0" 500.0000 "NO "    0.00000    0.00000 1.04449372 -27.8342609 1.000000      2     10      1      1 67 "YES" "Default" "NO " "" "" "" "" "" "" "" "" "" "" "BusbarSection" 0 "" "" "" "YES" "NO " ""     0.090680
  2018 "PANHANDLE 4 1" 161.0000 "NO "    0.00000    0.00000 1.04195621 -26.6708353 1.000000      2     10      1      1 67 "YES" "Default" "NO " "" "" "" "" "" "" "" "" "" "" "BusbarSection" 0 "" "" "" "YES" "NO " ""     0.141130
  2019 "PANHANDLE 4 2" 20.0000 "NO "    0.00000    0.00000 1.04449372 -27.8342609 1.000000      2     10      1      1 67 "YES" "Default" "NO " "" "" "" "" "" "" "" "" "" "" "BusbarSection" 0 "" "" "" "YES" "NO " ""     0.102500
  2020 "WICHITA FALLS 6 0" 161.0000 "NO "    0.00000    0.00000 1.02167557 -37.7469697 1.000000      2     11      1      1 68 "YES" "Default" "NO " "" "" "" "" "" "" "" "" "" "" "BusbarSection" 0 "" "" "" "YES" "NO " ""     0.069420
  2021 "PARIS 2 0"    500.0000 "NO "    0.00000    0.00000 1.03643963 -47.8712264 1.000000      2     11      1      1 69 "YES" "Default" "NO " "" "" "" "" "" "" "" "" "" "" "BusbarSection" 0 "" "" "" "YES" "NO " ""     0.074920
  2022 "PARIS 2 1"    161.0000 "NO "    0.00000    0.00000 1.03375045 -48.7492884 1.000000      2     11      1      1 69 "YES" "Default" "NO " "" "" "" "" "" "" "" "" "" "" "BusbarSection" 0 "" "" "" "YES" "NO " ""     0.093800
  2023 "PARIS 2 2"    13.8000 "NO "    0.00000    0.00000 1.03643963 -47.8712264 1.000000      2     11      1      1 69 "YES" "Default" "NO " "" "" "" "" "" "" "" "" "" "" "BusbarSection" 0 "" "" "" "YES" "NO " ""     0.108980
  2024 "PARIS 2 3"    13.8000 "NO "    0.00000    0.00000 1.03199157 -45.8560927 1.000000      2     11      1      1 69 "YES" "Default" "NO " "" "" "" "" "" "" "" "" "" "" "BusbarSection" 0 "" "" "" "YES" "NO " ""     0.099170
  2025 "WICHITA FALLS 4 0" 161.0000 "NO "    0.00000    0.00000 1.02012902 -37.2190813 1.000000      2     11      1      1 70 "YES" "Default" "NO " "" "" "" "" "" "" "" "" "" "" "BusbarSection" 0 "" "" "" "YES" "NO " ""     0.072140
  2026 "WHEELER 0"    161.0000 "NO "    0.00000    0.00000 1.04500135 -25.3384643 1.000000      2     10      1      1 71 "YES" "Default" "NO " "" "" "" "" "" "" "" "" "" "" "BusbarSection" 0 "" "" "" "YES" "NO " ""     0.213160
  2027 "DEPORT 0"     161.0000 "NO "    0.00000    0.00000 1.02960807 -49.5802300 1.000000      2     11      1      1 72 "YES" "Default" "NO " "" "" "" "" "" "" "" "" "" "" "BusbarSection" 0 "" "" "" "YES" "NO " ""     0.171390
  2028 "WICHITA FALLS 3 0" 161.0000 "NO "    0.00000    0.00000 1.02022329 -38.6409572 1.000000      2     11      1      1 73 "YES" "Default" "NO " "" "" "" "" "" "" "" "" "" "" "BusbarSection" 0 "" "" "" "YES" "NO " ""     0.096190
  2029 "SILVERTON 0"  161.0000 "NO "    0.00000    0.00000 1.03564898 -25.9514169 1.000000      2     10      1      1 74 "YES" "Default" "NO " "" "" "" "" "" "" "" "" "" "" "BusbarSection" 0 "" "" "" "YES" "NO " ""     0.396190
  2030 "BONHAM 0"     161.0000 "NO "    0.00000    0.00000 1.01765163 -50.7344977 1.000000      2     11      1      1 75 "YES" "Default" "NO " "" "" "" "" "" "" "" "" "" "" "BusbarSection" 0 "" "" "" "YES" "NO " ""     0.215210
  2031 "MATADOR 0"    161.0000 "NO "    0.00000    0.00000 1.02759200 -20.8828476 1.000000      2     10      1      1 76 "YES" "Default" "NO " "" "" "" "" "" "" "" "" "" "" "BusbarSection" 0 "" "" "" "YES" "NO " ""     0.378440
  2032 "ARTHUR CITY 0" 161.0000 "NO "    0.00000    0.00000 1.03060905 -48.9846204 1.000000      2     11      1      1 77 "YES" "Default" "NO " "" "" "" "" "" "" "" "" "" "" "BusbarSection" 0 "" "" "" "YES" "NO " ""     0.131670
  2033 "LEONARD 0"    161.0000 "NO "    0.00000    0.00000 1.01844414 -51.1487728 1.000000      2     11      1      1 78 "YES" "Default" "NO " "" "" "" "" "" "" "" "" "" "" "BusbarSection" 0 "" "" "" "YES" "NO " ""     0.187030
  2034 "GORDONVILLE 0" 161.0000 "NO "    0.00000    0.00000 1.02542772 -52.4899617 1.000000      2     11      1      1 79 "YES" "Default" "NO " "" "" "" "" "" "" "" "" "" "" "BusbarSection" 0 "" "" "" "YES" "NO " ""     0.184960
  2035 "KNOX CITY 0"  161.0000 "NO "    0.00000    0.00000 1.02490746 -20.2821693 1.000000      2     10      1      1 80 "YES" "Default" "NO " "" "" "" "" "" "" "" "" "" "" "BusbarSection" 0 "" "" "" "YES" "NO " ""     0.348190
  2036 "WICHITA FALLS 7 0" 161.0000 "NO "    0.00000    0.00000 1.02226460 -37.4179545 1.000000      2     11      1      1 81 "YES" "Default" "NO " "" "" "" "" "" "" "" "" "" "" "BusbarSection" 0 "" "" "" "YES" "NO " ""     0.071180
  2037 "LINDSAY 0"    161.0000 "NO "    0.00000    0.00000 1.02823255 -47.1787952 1.000000      2     11      1      1 82 "YES" "Default" "NO " "" "" "" "" "" "" "" "" "" "" "BusbarSection" 0 "" "" "" "YES" "NO " ""     0.208060
  2038 "ECTOR 0"      161.0000 "NO "    0.00000    0.00000 1.02977115 -50.2714756 1.000000      2     11      1      1 83 "YES" "Default" "NO " "" "" "" "" "" "" "" "" "" "" "BusbarSection" 0 "" "" "" "YES" "NO " ""     0.109290
  2039 "SUNSET 0"     161.0000 "NO "    0.00000    0.00000 1.01657169 -45.7328104 1.000000      2     11      1      1 84 "YES" "Default" "NO " "" "" "" "" "" "" "" "" "" "" "BusbarSection" 0 "" "" "" "YES" "NO " ""     0.205330
  2040 "CLARKSVILLE 0" 161.0000 "NO "    0.00000    0.00000 1.03332279 -49.1244404 1.000000      2     11      1      1 85 "YES" "Default" "NO " "" "" "" "" "" "" "" "" "" "" "BusbarSection" 0 "" "" "" "YES" "NO " ""     0.182650
  2041 "PANHANDLE 3 0" 161.0000 "NO "    0.00000    0.00000 1.04606139 -22.2259124 1.000000      2     10      1      1 86 "YES" "Default" "NO " "" "" "" "" "" "" "" "" "" "" "BusbarSection" 0 "" "" "" "YES" "NO " ""     0.199060
  2042 "PANHANDLE 3 1" 18.0000 "NO "    0.00000    0.00000 1.03765411 -19.7395704 1.000000      2     10      1      1 86 "YES" "Default" "NO " "" "" "" "" "" "" "" "" "" "" "BusbarSection" 0 "" "" "" "YES" "NO " ""     0.277520
  2043 "SADLER 0"     161.0000 "NO "    0.00000    0.00000 1.02415399 -52.5646342 1.000000      2     11      1      1 87 "YES" "Default" "NO " "" "" "" "" "" "" "" "" "" "" "BusbarSection" 0 "" "" "" "YES" "NO " ""     0.203630
  2044 "WHITESBORO 0" 161.0000 "NO "    0.00000    0.00000 1.02745690 -49.2117638 1.000000      2     11      1      1 88 "YES" "Default" "NO " "" "" "" "" "" "" "" "" "" "" "BusbarSection" 0 "" "" "" "YES" "NO " ""     0.138750
  2045 "SHEPPARD AFB 0" 161.0000 "NO "    0.00000    0.00000 1.02100488 -37.9572094 1.000000      2     11      1      1 89 "YES" "Default" "NO " "" "" "" "" "" "" "" "" "" "" "BusbarSection" 0 "" "" "" "YES" "NO " ""     0.074900
  2046 "POTTSBORO 0"  161.0000 "NO "    0.00000    0.00000 1.02702052 -52.3798769 1.000000      2     11      1      1 90 "YES" "Default" "NO " "" "" "" "" "" "" "" "" "" "" "BusbarSection" 0 "" "" "" "YES" "NO " ""     0.165030
  2047 "BELLS 0"      161.0000 "NO "    0.00000    0.00000 1.03114041 -50.4560628 1.000000      2     11      1      1 91 "YES" "Default" "NO " "" "" "" "" "" "" "" "" "" "" "BusbarSection" 0 "" "" "" "YES" "NO " ""     0.098520
  2048 "CROSBYTON 0"  161.0000 "NO "    0.00000    0.00000 1.03192529 -23.7465400 1.000000      2     10      1      1 92 "YES" "Default" "NO " "" "" "" "" "" "" "" "" "" "" "BusbarSection" 0 "" "" "" "YES" "NO " ""     0.321420
  2049 "ELECTRA 0"    161.0000 "NO "    0.00000    0.00000 1.02361533 -31.7580070 1.000000      2     10      1      1 93 "YES" "Default" "NO " "" "" "" "" "" "" "" "" "" "" "BusbarSection" 0 "" "" "" "YES" "NO " ""     0.184230
  2050 "PATTONVILLE 0" 161.0000 "NO "    0.00000    0.00000 1.02419727 -50.6274342 1.000000      2     11      1      1 94 "YES" "Default" "NO " "" "" "" "" "" "" "" "" "" "" "BusbarSection" 0 "" "" "" "YES" "NO " ""     0.304950
  2051 "HENRIETTA 0"  161.0000 "NO "    0.00000    0.00000 1.01790136 -42.1030801 1.000000      2     11      1      1 95 "YES" "Default" "NO " "" "" "" "" "" "" "" "" "" "" "BusbarSection" 0 "" "" "" "YES" "NO " ""     0.167140
  2052 "PANHANDLE 6 0" 161.0000 "NO "    0.00000    0.00000 1.03804708 -25.4759616 1.000000      2     10      1      1 96 "YES" "Default" "NO " "" "" "" "" "" "" "" "" "" "" "BusbarSection" 0 "" "" "" "YES" "NO " ""     0.234600
  2053 "BOWIE 0"      161.0000 "NO "    0.00000    0.00000 1.01809515 -45.3575101 1.000000      2     11      1      1 97 "YES" "Default" "NO " "" "" "" "" "" "" "" "" "" "" "BusbarSection" 0 "" "" "" "YES" "NO " ""     0.129190
  2054 "WICHITA FALLS 1 0" 500.0000 "NO "    0.00000    0.00000 1.02659992 -37.1211169 1.000000      2     11      1      1 98 "YES" "Default" "NO " "" "" "" "" "" "" "" "" "" "" "BusbarSection" 0 "" "" "" "YES" "NO " ""     0.054560
  2055 "WICHITA FALLS 1 1" 161.0000 "NO "    0.00000    0.00000 1.02364142 -37.3620656 1.000000      2     11      1      1 98 "YES" "Default" "NO " "" "" "" "" "" "" "" "" "" "" "BusbarSection" 0 "" "" "" "YES" "NO " ""     0.061980
  2056 "WICHITA FALLS 1 2" 18.0000 "NO "    0.00000    0.00000 1.02659992 -37.1211169 1.000000      2     11      1      1 98 "YES" "Default" "NO " "" "" "" "" "" "" "" "" "" "" "BusbarSection" 0 "" "" "" "YES" "NO " ""     0.117790
  2057 "WICHITA FALLS 1 3" 18.0000 "NO "    0.00000    0.00000 1.02659992 -37.1211169 1.000000      2     11      1      1 98 "YES" "Default" "NO " "" "" "" "" "" "" "" "" "" "" "BusbarSection" 0 "" "" "" "YES" "NO " ""     0.067770
  2058 "WHITE DEER 0" 161.0000 "NO "    0.00000    0.00000 1.04654298 -21.7850690 1.000000      2     10      1      1 99 "YES" "Default" "NO " "" "" "" "" "" "" "" "" "" "" "BusbarSection" 0 "" "" "" "YES" "NO " ""     0.211490
  2059 "WHITE DEER 1" 13.8000 "NO "    0.00000    0.00000 1.03678277 -18.5554413 1.000000      2     10      1      1 99 "YES" "Default" "NO " "" "" "" "" "" "" "" "" "" "" "BusbarSection" 0 "" "" "" "YES" "NO " ""     0.312340
  2060 "ROXTON 0"     161.0000 "NO "    0.00000    0.00000 1.02546161 -50.0385964 1.000000      2     11      1      1 100 "YES" "Default" "NO " "" "" "" "" "" "" "" "" "" "" "BusbarSection" 0 "" "" "" "YES" "NO " ""     0.160980
  2061 "VERNON 1 0"   161.0000 "NO "    0.00000    0.00000 1.02467850 -27.8537318 1.000000      2     10      1      1 101 "YES" "Default" "NO " "" "" "" "" "" "" "" "" "" "" "BusbarSection" 0 "" "" "" "YES" "NO " ""     0.237720
  2062 "VERNON 1 1"   18.0000 "NO "    0.00000    0.00000 1.02000001 -25.5571305 1.000000      2     10      1      1 101 "YES" "Default" "NO " "" "" "" "" "" "" "" "" "" "" "BusbarSection" 0 "" "" "" "YES" "NO " ""     0.278750
  2063 "DENISON 2 0"  161.0000 "NO "    0.00000    0.00000 1.03000000 -52.1384546 1.000000      2     11      1      1 102 "YES" "Default" "NO " "" "" "" "" "" "" "" "" "" "" "BusbarSection" 0 "" "" "" "YES" "NO " ""     0.144520
  2064 "SUMNER 0"     161.0000 "NO "    0.00000    0.00000 1.02943526 -49.4004417 1.000000      2     11      1      1 103 "YES" "Default" "NO " "" "" "" "" "" "" "" "" "" "" "BusbarSection" 0 "" "" "" "YES" "NO " ""     0.125360
  2065 "GAINESVILLE 0" 161.0000 "NO "    0.00000    0.00000 1.03000000 -48.6418978 1.000000      2     11      1      1 104 "YES" "Default" "NO " "" "" "" "" "" "" "" "" "" "" "BusbarSection" 0 "" "" "" "YES" "NO " ""     0.183720
  2066 "ASPERMONT 0"  161.0000 "NO "    0.00000    0.00000 1.02256266 -17.6294600 1.000000      2     10      1      1 105 "YES" "Default" "NO " "" "" "" "" "" "" "" "" "" "" "BusbarSection" 0 "" "" "" "YES" "NO " ""     0.265470
  2067 "WICHITA FALLS 5 0" 161.0000 "NO "    0.00000    0.00000 1.01744974 -36.8710606 1.000000      2     11      1      1 106 "YES" "Default" "NO " "" "" "" "" "" "" "" "" "" "" "BusbarSection" 0 "" "" "" "YES" "NO " ""     0.086140
  2068 "WINDTHORST 0" 161.0000 "NO "    0.00000    0.00000 1.01655144 -34.5814421 1.000000      2     11      1      1 107 "YES" "Default" "NO " "" "" "" "" "" "" "" "" "" "" "BusbarSection" 0 "" "" "" "YES" "NO " ""     0.140520
  2069 "HOWE 0"       161.0000 "NO "    0.00000    0.00000 1.03000000 -52.0537453 1.000000      2     11      1      1 108 "YES" "Default" "NO " "" "" "" "" "" "" "" "" "" "" "BusbarSection" 0 "" "" "" "YES" "NO " ""     0.156140
  2070 "ARCHER 2 0"   161.0000 "NO "    0.00000    0.00000 1.01721096 -34.0941467 1.000000      2     11      1      1 109 "YES" "Default" "NO " "" "" "" "" "" "" "" "" "" "" "BusbarSection" 0 "" "" "" "YES" "NO " ""     0.118840
  2071 "ARCHER 2 1"   18.0000 "NO "    0.00000    0.00000 1.00435118 -30.4747866 1.000000      2     11      1      1 109 "YES" "Default" "NO " "" "" "" "" "" "" "" "" "" "" "BusbarSection" 0 "" "" "" "YES" "NO " ""     0.175920
  2072 "COLLINSVILLE 0" 161.0000 "NO "    0.00000    0.00000 1.02917157 -51.1087380 1.000000      2     11      1      1 110 "YES" "Default" "NO " "" "" "" "" "" "" "" "" "" "" "BusbarSection" 0 "" "" "" "YES" "NO " ""     0.123470
  2073 "JAYTON 0"     161.0000 "NO "    0.00000    0.00000 1.02164471 -15.4325550 1.000000      2     10      1      1 111 "YES" "Default" "NO " "" "" "" "" "" "" "" "" "" "" "BusbarSection" 0 "" "" "" "YES" "NO " ""     0.201760
  2074 "JAYTON 1"     115.0000 "NO "    0.00000    0.00000 1.01014105 -13.0990568 1.000000      2     10      1      1 111 "YES" "Default" "NO " "" "" "" "" "" "" "" "" "" "" "BusbarSection" 0 "" "" "" "YES" "NO " ""     0.246430
  2075 "JAYTON 2"     115.0000 "NO "    0.00000    0.00000 1.01014105 -13.0990568 1.000000      2     10      1      1 111 "YES" "Default" "NO " "" "" "" "" "" "" "" "" "" "" "BusbarSection" 0 "" "" "" "YES" "NO " ""     0.539510
  2076 "JAYTON 3"     24.0000 "NO "    0.00000    0.00000 1.02687812 -14.5366570 1.000000      2     10      1      1 111 "YES" "Default" "NO " "" "" "" "" "" "" "" "" "" "" "BusbarSection" 0 "" "" "" "YES" "NO " ""     0.275650
  2077 "MUENSTER 1 0" 161.0000 "NO "    0.00000    0.00000 1.02841587 -45.3406955 1.000000      2     11      1      1 112 "YES" "Default" "NO " "" "" "" "" "" "" "" "" "" "" "BusbarSection" 0 "" "" "" "YES" "NO " ""     0.238820
  2078 "MUENSTER 1 1" 13.8000 "NO "    0.00000    0.00000 1.02000001 -42.0355517 1.000000      2     11      1      1 112 "YES" "Default" "NO " "" "" "" "" "" "" "" "" "" "" "BusbarSection" 0 "" "" "" "YES" "NO " ""     0.310210
  2079 "PADUCAH 0"    161.0000 "NO "    0.00000    0.00000 1.03246465 -25.2327473 1.000000      2     10      1      1 113 "YES" "Default" "NO " "" "" "" "" "" "" "" "" "" "" "BusbarSection" 0 "" "" "" "YES" "NO " ""     0.436030
  2080 "NOCONA 0"     161.0000 "NO "    0.00000    0.00000 1.01964936 -43.7901372 1.000000      2     11      1      1 114 "YES" "Default" "NO " "" "" "" "" "" "" "" "" "" "" "BusbarSection" 0 "" "" "" "YES" "NO " ""     0.206180
  2081 "DODD CITY 0"  161.0000 "NO "    0.00000    0.00000 1.02545578 -50.6978214 1.000000      2     11      1      1 115 "YES" "Default" "NO " "" "" "" "" "" "" "" "" "" "" "BusbarSection" 0 "" "" "" "YES" "NO " ""     0.146770
  2082 "WICHITA FALLS 2 0" 161.0000 "NO "    0.00000    0.00000 1.02239857 -37.3677574 1.000000      2     11      1      1 116 "YES" "Default" "NO " "" "" "" "" "" "" "" "" "" "" "BusbarSection" 0 "" "" "" "YES" "NO " ""     0.081210
  2083 "WICHITA FALLS 2 1" 20.0000 "NO "    0.00000    0.00000 1.02239857 -37.3677574 1.000000      2     11      1      1 116 "YES" "Default" "NO " "" "" "" "" "" "" "" "" "" "" "BusbarSection" 0 "" "" "" "YES" "NO " ""     0.224300
  2084 "WICHITA FALLS 2 2" 20.0000 "NO "    0.00000    0.00000 1.02239857 -37.3677574 1.000000      2     11      1      1 116 "YES" "Default" "NO " "" "" "" "" "" "" "" "" "" "" "BusbarSection" 0 "" "" "" "YES" "NO " ""     0.261430
  2085 "WICHITA FALLS 2 3" 20.0000 "NO "    0.00000    0.00000 1.02239857 -37.3677574 1.000000      2     11      1      1 116 "YES" "Default" "NO " "" "" "" "" "" "" "" "" "" "" "BusbarSection" 0 "" "" "" "YES" "NO " ""     0.153590
  2086 "MONTAGUE 0"   161.0000 "NO "    0.00000    0.00000 1.01794332 -44.9993863 1.000000      2     11      1      1 117 "YES" "Default" "NO " "" "" "" "" "" "" "" "" "" "" "BusbarSection" 0 "" "" "" "YES" "NO " ""     0.242580
  2087 "SPUR 0"       161.0000 "NO "    0.00000    0.00000 1.02403806 -18.1484070 1.000000      2     10      1      1 118 "YES" "Default" "NO " "" "" "" "" "" "" "" "" "" "" "BusbarSection" 0 "" "" "" "YES" "NO " ""     0.285850
  2088 "ARCHER 1 0"   161.0000 "NO "    0.00000    0.00000 1.01659134 -34.2563642 1.000000      2     11      1      1 119 "YES" "Default" "NO " "" "" "" "" "" "" "" "" "" "" "BusbarSection" 0 "" "" "" "YES" "NO " ""     0.132600
  2089 "ARCHER 1 1"   24.0000 "NO "    0.00000    0.00000 1.00393793 -30.7111389 1.000000      2     11      1      1 119 "YES" "Default" "NO " "" "" "" "" "" "" "" "" "" "" "BusbarSection" 0 "" "" "" "YES" "NO " ""     0.256580
  2090 "ANNONA 0"     161.0000 "NO "    0.00000    0.00000 1.03080817 -49.8232512 1.000000      2     11      1      1 120 "YES" "Default" "NO " "" "" "" "" "" "" "" "" "" "" "BusbarSection" 0 "" "" "" "YES" "NO " ""     0.245940
  2091 "SEYMOUR 0"    161.0000 "NO "    0.00000    0.00000 1.02704674 -23.4628000 1.000000      2     10      1      1 121 "YES" "Default" "NO " "" "" "" "" "" "" "" "" "" "" "BusbarSection" 0 "" "" "" "YES" "NO " ""     0.449870
  2092 "DENISON 1 0"  161.0000 "NO "    0.00000    0.00000 1.02960401 -51.3375771 1.000000      2     11      1      1 122 "YES" "Default" "NO " "" "" "" "" "" "" "" "" "" "" "BusbarSection" 0 "" "" "" "YES" "NO " ""     0.120550
  2093 "PANHANDLE 5 0" 161.0000 "NO "    0.00000    0.00000 1.04387581 -25.4497214 1.000000      2     10      1      1 123 "YES" "Default" "NO " "" "" "" "" "" "" "" "" "" "" "BusbarSection" 0 "" "" "" "YES" "NO " ""     0.191450
  2094 "PANHANDLE 5 1" 13.8000 "NO "    0.00000    0.00000 1.04387581 -25.4497214 1.000000      2     10      1      1 123 "YES" "Default" "NO " "" "" "" "" "" "" "" "" "" "" "BusbarSection" 0 "" "" "" "YES" "NO " ""     0.294820
  2095 "PANHANDLE 5 2" 13.8000 "NO "    0.00000    0.00000 1.04387581 -25.4497214 1.000000      2     10      1      1 123 "YES" "Default" "NO " "" "" "" "" "" "" "" "" "" "" "BusbarSection" 0 "" "" "" "YES" "NO " ""     0.242460
  2096 "RALLS 1 0"    500.0000 "NO "    0.00000    0.00000 1.02970571 -26.7583764 1.000000      2     10      1      1 124 "YES" "Default" "NO " "" "" "" "" "" "" "" "" "" "" "BusbarSection" 0 "" "" "" "YES" "NO " ""     0.060000
  2097 "RALLS 1 1"    230.0000 "NO "    0.00000    0.00000 1.02626229 -25.5481455 1.000000      2     10      1      1 124 "YES" "Default" "NO " "" "" "" "" "" "" "" "" "" "" "BusbarSection" 0 "" "" "" "YES" "NO " ""     0.067290
  2098 "RALLS 1 2"    161.0000 "NO "    0.00000    0.00000 1.03085911 -25.0670264 1.000000      2     10      1      1 124 "YES" "Default" "NO " "" "" "" "" "" "" "" "" "" "" "BusbarSection" 0 "" "" "" "YES" "NO " ""     0.200320
...